data/models/IEEE_123_Bus-G/ieee123_Curr_Elem.Txt

CIRCUIT ELEMENT CURRENTS

(Currents into element from indicated bus)

Power Delivery Elements

  Bus    Phase    Magnitude, A     Angle      (Real)   +j  (Imag)

ELEMENT = "Vsource.SOURCE"
150          1           630.32 /_  157.1 =    -580.63 +j     245.3
150          2           416.69 /_   39.6 =     321.01 +j    265.67
150          3           511.04 /_  -79.3 =     94.962 +j   -502.14
------------
150          0           630.32 /_  -22.9 =     580.63 +j    -245.3
150          0           416.69 /_ -140.4 =    -321.01 +j   -265.67
150          0           511.04 /_  100.7 =    -94.962 +j    502.14

ELEMENT = "Line.L115"
149          1           630.32 /_  -22.9 =     580.63 +j    -245.3
149          2           416.69 /_ -140.4 =    -321.01 +j   -265.67
149          3           511.04 /_  100.7 =    -94.962 +j    502.14
------------
1            1           630.32 /_  157.1 =    -580.63 +j     245.3
1            2           416.69 /_   39.6 =     321.01 +j    265.67
1            3           511.04 /_  -79.3 =     94.961 +j   -502.14

ELEMENT = "Line.L3"
1            1           611.51 /_  -22.8 =     563.86 +j   -236.67
1            2           407.41 /_ -140.2 =    -313.19 +j   -260.57
1            3           464.95 /_  101.5 =    -92.547 +j    455.64
------------
7            1           611.51 /_  157.2 =    -563.86 +j    236.67
7            2           407.41 /_   39.8 =     313.19 +j    260.57
7            3           464.95 /_  -78.5 =     92.547 +j   -455.64

ELEMENT = "Line.L7"
7            1           602.02 /_  -22.7 =     555.42 +j   -232.24
7            2           407.41 /_ -140.2 =    -313.19 +j   -260.57
7            3           464.95 /_  101.5 =    -92.547 +j    455.64
------------
8            1           602.02 /_  157.3 =    -555.42 +j    232.24
8            2           407.41 /_   39.8 =     313.19 +j    260.57
8            3           464.95 /_  -78.5 =     92.546 +j   -455.64

ELEMENT = "Line.L10"
8            1           555.69 /_  -22.2 =     514.34 +j   -210.34
8            2           398.11 /_ -140.1 =     -305.3 +j   -255.52
8            3           464.95 /_  101.5 =    -92.546 +j    455.64
------------
13           1           555.69 /_  157.8 =    -514.34 +j    210.35
13           2           398.11 /_   39.9 =      305.3 +j    255.51
13           3           464.95 /_  -78.5 =     92.545 +j   -455.64

ELEMENT = "Line.SW2"
13           1           330.79 /_  -16.6 =     316.94 +j     -94.7
13           2           252.01 /_ -130.8 =    -164.64 +j    -190.8
13           3           269.51 /_  110.5 =    -94.329 +j    252.47
------------
152          1           330.79 /_  163.4 =    -316.94 +j      94.7
152          2           252.01 /_   49.2 =     164.64 +j     190.8
152          3           269.51 /_  -69.5 =     94.329 +j   -252.47

ELEMENT = "Line.L116"
152          1           330.79 /_  -16.6 =     316.94 +j     -94.7
152          2           252.01 /_ -130.8 =    -164.64 +j    -190.8
152          3           269.51 /_  110.5 =    -94.329 +j    252.47
------------
52           1           330.79 /_  163.4 =    -316.94 +j    94.701
52           2           252.01 /_   49.2 =     164.64 +j     190.8
52           3           269.51 /_  -69.5 =     94.328 +j   -252.47

ELEMENT = "Line.L52"
52           1           311.79 /_  -15.9 =     299.89 +j   -85.321
52           2           252.01 /_ -130.8 =    -164.64 +j    -190.8
52           3           269.51 /_  110.5 =    -94.328 +j    252.47
------------
53           1           311.79 /_  164.1 =    -299.89 +j    85.322
53           2           252.01 /_   49.2 =     164.64 +j     190.8
53           3           269.51 /_  -69.5 =     94.328 +j   -252.47

ELEMENT = "Line.L53"
53           1           292.81 /_  -15.0 =     282.82 +j   -75.863
53           2           252.01 /_ -130.8 =    -164.64 +j    -190.8
53           3           269.51 /_  110.5 =    -94.328 +j    252.47
------------
54           1           292.81 /_  165.0 =    -282.82 +j    75.863
54           2           252.01 /_   49.2 =     164.64 +j     190.8
54           3           269.51 /_  -69.5 =     94.327 +j   -252.47

ELEMENT = "Line.SW8"
54           1      9.4831E-007 /_   87.5 =  4.191E-008 +j 9.4739E-007
------------
94_OPEN      1      2.3283E-010 /_   90.0 =          0 +j 2.3283E-010

ELEMENT = "Line.L55"
54           1           284.21 /_  -14.6 =     275.06 +j   -71.549
54           2           243.03 /_ -130.1 =    -156.64 +j   -185.81
54           3           269.51 /_  110.5 =    -94.326 +j    252.47
------------
57           1           284.21 /_  165.4 =    -275.06 +j     71.55
57           2           243.03 /_   49.9 =     156.64 +j    185.81
57           3           269.51 /_  -69.5 =     94.325 +j   -252.47

ELEMENT = "Line.L58"
57           1           284.21 /_  -14.6 =     275.06 +j    -71.55
57           2           225.26 /_ -128.6 =    -140.66 +j   -175.95
57           3           269.51 /_  110.5 =    -94.325 +j    252.47
------------
60           1           284.21 /_  165.4 =    -275.06 +j    71.552
60           2           225.26 /_   51.4 =     140.67 +j    175.95
60           3           269.51 /_  -69.5 =     94.323 +j   -252.47

ELEMENT = "Line.SW4"
60           1           235.92 /_   -9.1 =     232.94 +j   -37.384
60           2           178.55 /_ -122.5 =    -95.845 +j   -150.64
60           3           194.97 /_  117.9 =    -91.355 +j    172.24
------------
160          1           235.92 /_  170.9 =    -232.94 +j    37.384
160          2           178.55 /_   57.5 =     95.845 +j    150.64
160          3           194.97 /_  -62.1 =     91.355 +j   -172.24

ELEMENT = "Line.L117"
160R         1           235.92 /_   -9.1 =     232.94 +j   -37.384
160R         2           176.35 /_ -122.5 =    -94.662 +j   -148.79
160R         3           189.06 /_  117.9 =    -88.587 +j    167.02
------------
67           1           235.92 /_  170.9 =    -232.94 +j    37.385
67           2           176.35 /_   57.5 =     94.663 +j    148.78
67           3           189.06 /_  -62.1 =     88.586 +j   -167.02

ELEMENT = "Line.L68"
67           1           84.028 /_  -30.6 =     72.319 +j   -42.786
67           2           56.544 /_ -149.0 =    -48.468 +j   -29.122
67           3           65.725 /_   90.8 =   -0.96911 +j    65.718
------------
97           1           84.028 /_  149.4 =    -72.319 +j    42.787
97           2           56.545 /_   31.0 =     48.469 +j    29.122
97           3           65.726 /_  -89.2 =    0.96833 +j   -65.718

ELEMENT = "Line.SW5"
97           1           64.666 /_  -30.7 =     55.614 +j   -32.996
97           2           37.715 /_ -149.0 =    -32.338 +j   -19.408
97           3           47.326 /_   90.8 =    -0.6911 +j    47.321
------------
197          1           64.666 /_  149.3 =    -55.614 +j    32.996
197          2           37.715 /_   31.0 =     32.338 +j    19.408
197          3           47.326 /_  -89.2 =     0.6911 +j   -47.321

ELEMENT = "Line.L118"
197          1           64.666 /_  -30.7 =     55.614 +j   -32.996
197          2           37.715 /_ -149.0 =    -32.338 +j   -19.408
197          3           47.326 /_   90.8 =    -0.6911 +j    47.321
------------
101          1           64.666 /_  149.3 =    -55.614 +j    32.996
101          2           37.715 /_   31.0 =     32.339 +j    19.408
101          3           47.326 /_  -89.2 =    0.69032 +j   -47.321

ELEMENT = "Line.L101"
101          1           64.666 /_  -30.7 =     55.614 +j   -32.996
101          2           37.715 /_ -149.0 =    -32.339 +j   -19.408
101          3        0.0053921 /_ -157.4 =  -0.0049794 +j -0.0020689
------------
105          1           64.666 /_  149.3 =    -55.614 +j    32.997
105          2           37.716 /_   31.0 =     32.339 +j    19.407
105          3        0.0044653 /_   22.6 =  0.0041235 +j 0.0017134

ELEMENT = "Line.L105"
105          1           64.666 /_  -30.7 =     55.614 +j   -32.997
105          2        0.0041626 /_  -24.2 =  0.0037971 +j -0.0017056
105          3        0.0044653 /_ -157.4 =  -0.0041235 +j -0.0017134
------------
108          1           64.667 /_  149.3 =    -55.614 +j    32.998
108          2        0.0031416 /_  155.8 =  -0.0028658 +j 0.0012873
108          3          0.00337 /_   22.6 =   0.003112 +j 0.0012932

ELEMENT = "Line.L108"
108          1        0.0027239 /_   82.5 =  0.00035773 +j 0.0027003
108          2        0.0031416 /_  -24.2 =  0.0028658 +j -0.0012873
108          3          0.00337 /_ -157.4 =  -0.003112 +j -0.0012932
------------
300          1      3.6663E-012 /_  119.7 =  -1.819E-012 +j 3.1832E-012
300          2      4.5475E-012 /_  -36.9 =  3.638E-012 +j -2.7285E-012
300          3                0 /_    0.0 =          0 +j         0

ELEMENT = "Line.L107"
108          1           64.668 /_  -30.7 =     55.614 +j   -33.001
------------
109          1           64.668 /_  149.3 =    -55.614 +j    33.002

ELEMENT = "Line.L109"
109          1           45.476 /_  -30.7 =     39.099 +j   -23.223
------------
110          1           45.476 /_  149.3 =    -39.099 +j    23.223

ELEMENT = "Line.L111"
110          1           35.911 /_  -30.7 =     30.873 +j   -18.343
------------
112          1           35.911 /_  149.3 =    -30.873 +j    18.343

ELEMENT = "Line.L112"
112          1           26.812 /_  -30.7 =     23.048 +j   -13.699
------------
113          1           26.812 /_  149.3 =    -23.048 +j      13.7

ELEMENT = "Line.L113"
113          1           9.5388 /_  -30.7 =     8.1992 +j   -4.8746
------------
114          1           9.5391 /_  149.3 =    -8.1991 +j    4.8752

ELEMENT = "Line.L110"
110          1           9.5647 /_  -30.7 =     8.2258 +j   -4.8806
------------
111          1           9.5652 /_  149.3 =    -8.2257 +j    4.8817

ELEMENT = "Line.L104"
105          2           37.718 /_ -149.0 =    -32.343 +j   -19.405
------------
106          2           37.718 /_   31.0 =     32.344 +j    19.405

ELEMENT = "Line.L106"
106          2           18.874 /_ -149.1 =    -16.186 +j   -9.7062
------------
107          2           18.874 /_   30.9 =     16.187 +j    9.7056

ELEMENT = "Line.L100"
101          3           47.328 /_   90.8 =   -0.68534 +j    47.324
------------
102          3           47.329 /_  -89.2 =    0.68494 +j   -47.324

ELEMENT = "Line.L102"
102          3           37.883 /_   90.8 =   -0.54161 +j    37.879
------------
103          3           37.884 /_  -89.2 =    0.54103 +j    -37.88

ELEMENT = "Line.L103"
103          3            18.96 /_   90.8 =   -0.26525 +j    18.958
------------
104          3            18.96 /_  -89.2 =    0.26399 +j   -18.958

ELEMENT = "Line.L96"
97           1           19.363 /_  -30.4 =     16.704 +j   -9.7914
97           2            18.83 /_ -148.9 =    -16.131 +j   -9.7139
97           3           18.399 /_   90.9 =   -0.27723 +j    18.397
------------
98           1           19.363 /_  149.6 =    -16.704 +j    9.7922
98           2            18.83 /_   31.1 =     16.132 +j    9.7136
98           3             18.4 /_  -89.1 =    0.27638 +j   -18.398

ELEMENT = "Line.L97"
98           1        0.0045065 /_   82.6 =  0.00058126 +j 0.0044689
98           2            18.83 /_ -148.9 =    -16.132 +j   -9.7136
98           3             18.4 /_   90.9 =   -0.27638 +j    18.398
------------
99           1        0.0030044 /_  -97.4 =  -0.00038748 +j -0.0029793
99           2           18.831 /_   31.0 =     16.133 +j    9.7129
99           3             18.4 /_  -89.1 =    0.27467 +j   -18.398

ELEMENT = "Line.L98"
99           1        0.0030044 /_   82.6 =  0.00038748 +j 0.0029793
99           2        0.0034553 /_  -24.2 =  0.0031525 +j -0.0014146
99           3             18.4 /_   90.9 =   -0.27467 +j    18.398
------------
100          1        0.0021851 /_  -97.4 =  -0.00028181 +j -0.0021668
100          2         0.002513 /_  155.8 =  -0.0022927 +j 0.0010288
100          3           18.401 /_  -89.1 =    0.27373 +j   -18.399

ELEMENT = "Line.L99"
100          1        0.0021851 /_   82.6 =  0.00028181 +j 0.0021668
100          2         0.002513 /_  -24.2 =  0.0022927 +j -0.0010288
100          3        0.0026953 /_ -157.5 =  -0.0024897 +j -0.0010327
------------
450          1      4.5475E-013 /_   90.0 =          0 +j 4.5475E-013
450          2      2.8761E-012 /_ -108.4 =  -9.0949E-013 +j -2.7285E-012
450          3      2.5724E-012 /_  -45.0 =  1.819E-012 +j -1.819E-012

ELEMENT = "Line.L67"
67           1              116 /_   17.4 =     110.69 +j    34.704
67           2           128.27 /_ -111.1 =    -46.195 +j   -119.66
67           3           133.94 /_  130.9 =    -87.617 +j    101.31
------------
72           1              116 /_ -162.6 =    -110.69 +j   -34.704
72           2           128.27 /_   68.9 =     46.196 +j    119.66
72           3           133.94 /_  -49.1 =     87.616 +j   -101.31

ELEMENT = "Line.L73"
72           1              116 /_   17.4 =     110.69 +j    34.704
72           2           128.27 /_ -111.1 =    -46.196 +j   -119.66
72           3           97.918 /_  152.5 =    -86.893 +j    45.138
------------
76           1              116 /_ -162.6 =    -110.69 +j   -34.703
76           2           128.27 /_   68.9 =     46.196 +j    119.66
76           3           97.917 /_  -27.5 =     86.892 +j   -45.138

ELEMENT = "Line.L77"
76           1           34.656 /_   -0.3 =     34.655 +j  -0.18845
76           2           59.597 /_ -131.5 =    -39.481 +j   -44.644
76           3           20.785 /_  153.3 =    -18.562 +j    9.3529
------------
86           1           34.656 /_  179.7 =    -34.655 +j   0.19034
86           2           59.598 /_   48.5 =     39.483 +j    44.643
86           3           20.784 /_  -26.7 =      18.56 +j   -9.3538

ELEMENT = "Line.L86"
86           1           34.656 /_   -0.3 =     34.655 +j  -0.19034
86           2           50.698 /_ -128.2 =    -31.372 +j   -39.826
86           3           20.784 /_  153.3 =     -18.56 +j    9.3538
------------
87           1           34.655 /_  179.7 =    -34.655 +j   0.19168
87           2           50.699 /_   51.8 =     31.373 +j    39.826
87           3           20.783 /_  -26.8 =     18.558 +j   -9.3546

ELEMENT = "Line.L88"
87           1           19.311 /_  -30.6 =      16.63 +j   -9.8177
87           2           33.783 /_ -116.6 =     -15.12 +j   -30.211
87           3           20.783 /_  153.2 =    -18.558 +j    9.3546
------------
89           1           19.312 /_  149.4 =    -16.629 +j    9.8185
89           2           33.783 /_   63.4 =     15.121 +j    30.211
89           3           20.782 /_  -26.8 =     18.558 +j    -9.355

ELEMENT = "Line.L90"
89           1           19.312 /_  -30.6 =     16.629 +j   -9.8185
89           2           18.907 /_ -149.5 =    -16.289 +j   -9.5997
89           3           20.782 /_  153.2 =    -18.558 +j     9.355
------------
91           1           19.312 /_  149.4 =    -16.629 +j    9.8192
91           2           18.908 /_   30.5 =      16.29 +j    9.5994
91           3           20.782 /_  -26.8 =     18.557 +j   -9.3554

ELEMENT = "Line.L92"
91           1           19.312 /_  -30.6 =     16.629 +j   -9.8192
91           2           18.908 /_ -149.5 =     -16.29 +j   -9.5994
91           3        0.0017684 /_ -149.1 =  -0.0015173 +j -0.00090842
------------
93           1           19.312 /_  149.4 =    -16.629 +j    9.8198
93           2           18.908 /_   30.5 =      16.29 +j    9.5991
93           3        0.0010105 /_   30.9 =  0.00086702 +j 0.0005191

ELEMENT = "Line.L94"
93           1       0.00090893 /_   77.8 =  0.00019192 +j 0.00088844
93           2           18.908 /_ -149.5 =     -16.29 +j   -9.5991
93           3        0.0010105 /_ -149.1 =  -0.00086702 +j -0.0005191
------------
95           1      4.0674E-012 /_  -63.4 =  1.819E-012 +j -3.638E-012
95           2           18.909 /_   30.5 =     16.291 +j    9.5987
95           3       1.029E-011 /_  135.0 =  -7.276E-012 +j 7.276E-012

ELEMENT = "Line.L95"
95           2           9.4555 /_ -149.5 =    -8.1467 +j   -4.7997
------------
96           2           9.4557 /_   30.5 =     8.1471 +j    4.7995

ELEMENT = "Line.L93"
93           1           19.312 /_  -30.6 =     16.629 +j   -9.8207
------------
94           1           19.313 /_  149.4 =    -16.629 +j    9.8212

ELEMENT = "Line.L91"
91           3           20.781 /_  153.2 =    -18.556 +j    9.3563
------------
92           3           20.781 /_  -26.8 =     18.555 +j   -9.3566

ELEMENT = "Line.L89"
89           2           20.644 /_  -86.8 =     1.1684 +j   -20.611
------------
90           2           20.644 /_   93.2 =     -1.168 +j    20.611

ELEMENT = "Line.L87"
87           1           20.435 /_   28.1 =     18.025 +j     9.626
------------
88           1           20.434 /_ -151.9 =    -18.025 +j   -9.6257

ELEMENT = "Line.L76"
76           1           70.464 /_   57.8 =     37.566 +j    59.615
76           2           74.176 /_  -59.8 =     37.339 +j   -64.092
76           3           73.918 /_  179.9 =    -73.918 +j   0.13586
------------
77           1           70.463 /_ -122.2 =    -37.566 +j   -59.614
77           2           74.175 /_  120.2 =    -37.338 +j    64.092
77           3           73.917 /_   -0.1 =     73.916 +j  -0.13655

ELEMENT = "Line.L78"
77           1           70.463 /_   57.8 =     37.566 +j    59.614
77           2           76.342 /_  -45.5 =     53.499 +j   -54.461
77           3           73.917 /_  179.9 =    -73.916 +j   0.13655
------------
78           1           70.463 /_ -122.2 =    -37.565 +j   -59.614
78           2           76.342 /_  134.5 =    -53.499 +j     54.46
78           3           73.916 /_   -0.1 =     73.916 +j  -0.13672

ELEMENT = "Line.L80"
78           1           72.126 /_   71.9 =     22.467 +j    68.538
78           2           76.341 /_  -45.5 =     53.498 +j    -54.46
78           3           73.916 /_  179.9 =    -73.915 +j   0.13711
------------
80           1           72.125 /_ -108.1 =    -22.467 +j   -68.536
80           2            76.34 /_  134.5 =    -53.497 +j    54.459
80           3           73.914 /_   -0.1 =     73.914 +j  -0.13794

ELEMENT = "Line.L81"
80           1           72.125 /_   71.9 =     22.467 +j    68.536
80           2           82.843 /_  -32.8 =     69.639 +j    -44.87
80           3           73.914 /_  179.9 =    -73.914 +j   0.13794
------------
81           1           72.124 /_ -108.1 =    -22.467 +j   -68.536
81           2           82.842 /_  147.2 =    -69.639 +j     44.87
81           3           73.914 /_   -0.1 =     73.914 +j  -0.13824

ELEMENT = "Line.L83"
81           3           28.289 /_   90.5 =   -0.22369 +j    28.288
------------
84           3           28.289 /_  -89.5 =    0.22246 +j   -28.288

ELEMENT = "Line.L85"
84           3           18.867 /_   90.4 =   -0.14591 +j    18.867
------------
85           3           18.868 /_  -89.6 =    0.14506 +j   -18.867

ELEMENT = "Line.L82"
81           1           72.124 /_   71.9 =     22.467 +j    68.536
81           2           82.842 /_  -32.8 =     69.639 +j    -44.87
81           3           78.883 /_ -159.1 =     -73.69 +j    -28.15
------------
82           1           72.124 /_ -108.1 =    -22.467 +j   -68.535
82           2           82.841 /_  147.2 =    -69.638 +j    44.869
82           3           78.883 /_   20.9 =     73.689 +j    28.149

ELEMENT = "Line.L84"
82           1           78.695 /_   85.8 =     5.7058 +j    78.488
82           2           82.841 /_  -32.8 =     69.638 +j   -44.869
82           3           78.883 /_ -159.1 =    -73.689 +j   -28.149
------------
83           1           78.694 /_  -94.2 =    -5.7057 +j   -78.487
83           2           82.841 /_  147.2 =    -69.637 +j    44.869
83           3           78.882 /_   20.9 =     73.688 +j    28.149

ELEMENT = "Line.L79"
78           1           17.538 /_  -30.6 =     15.098 +j   -8.9239
78           2       0.00063979 /_  -28.8 =  0.00056065 +j -0.00030822
78           3       0.00075808 /_ -149.1 =  -0.00065039 +j -0.00038947
------------
79           1           17.539 /_  149.4 =    -15.098 +j    8.9246
79           2      5.1449E-012 /_ -135.0 =  -3.638E-012 +j -3.638E-012
79           3      2.3009E-011 /_   18.4 =  2.1828E-011 +j 7.276E-012

ELEMENT = "Line.L72"
72           3           56.173 /_   90.7 =   -0.72303 +j    56.169
------------
73           3           56.174 /_  -89.3 =    0.72254 +j   -56.169

ELEMENT = "Line.L74"
73           3            37.29 /_   90.7 =   -0.46975 +j    37.287
------------
74           3           37.291 /_  -89.3 =    0.46912 +j   -37.288

ELEMENT = "Line.L75"
74           3           18.939 /_   90.7 =   -0.23517 +j    18.938
------------
75           3           18.939 /_  -89.3 =    0.23445 +j   -18.938

ELEMENT = "Line.L66"
67           1           57.897 /_  -30.4 =     49.934 +j   -29.303
------------
68           1           57.897 /_  149.6 =    -49.934 +j    29.303

ELEMENT = "Line.L69"
68           1           48.219 /_  -30.4 =     41.583 +j   -24.412
------------
69           1           48.219 /_  149.6 =    -41.583 +j    24.413

ELEMENT = "Line.L70"
69           1           28.906 /_  -30.4 =     24.924 +j   -14.641
------------
70           1           28.907 /_  149.6 =    -24.924 +j    14.642

ELEMENT = "Line.L71"
70           1           19.265 /_  -30.4 =      16.61 +j   -9.7595
------------
71           1           19.265 /_  149.6 =     -16.61 +j    9.7601

ELEMENT = "Line.L61"
60           1           44.657 /_  -41.0 =     33.699 +j   -29.302
60           2            51.47 /_ -150.6 =    -44.822 +j   -25.301
60           3           80.283 /_   92.1 =    -2.9659 +j    80.228
------------
62           1           44.661 /_  139.0 =    -33.698 +j     29.31
62           2           51.474 /_   29.4 =     44.828 +j    25.297
62           3           80.286 /_  -87.9 =     2.9594 +j   -80.231

ELEMENT = "Line.L62"
62           1           44.661 /_  -41.0 =     33.698 +j    -29.31
62           2           51.474 /_ -150.6 =    -44.828 +j   -25.297
62           3           62.413 /_   92.4 =    -2.6283 +j    62.358
------------
63           1           44.664 /_  139.0 =    -33.698 +j    29.315
63           2           51.476 /_   29.4 =     44.833 +j    25.294
63           3           62.415 /_  -87.6 =     2.6238 +j    -62.36

ELEMENT = "Line.L63"
63           1            25.87 /_  -49.2 =     16.888 +j   -19.598
63           2           51.476 /_ -150.6 =    -44.833 +j   -25.294
63           3           62.415 /_   92.4 =    -2.6238 +j     62.36
------------
64           1           25.877 /_  130.7 =    -16.887 +j    19.608
64           2           51.481 /_   29.4 =     44.842 +j    25.289
64           3            62.42 /_  -87.6 =     2.6147 +j   -62.365

ELEMENT = "Line.L64"
64           1           25.877 /_  -49.3 =     16.887 +j   -19.608
64           2           17.188 /_ -157.6 =    -15.889 +j   -6.5545
64           3            62.42 /_   92.4 =    -2.6147 +j    62.365
------------
65           1           25.886 /_  130.7 =    -16.886 +j     19.62
65           2           17.195 /_   22.4 =       15.9 +j    6.5477
65           3           62.425 /_  -87.6 =     2.6037 +j    -62.37

ELEMENT = "Line.L65"
65           1        0.0093404 /_   86.5 =  0.00056525 +j 0.0093232
65           2        0.0096919 /_  -32.0 =  0.0082176 +j -0.0051385
65           3           36.235 /_   92.6 =    -1.6262 +j    36.198
------------
66           1      1.0168E-012 /_  -63.4 =  4.5475E-013 +j -9.0949E-013
66           2      3.2792E-012 /_  146.3 =  -2.7285E-012 +j 1.819E-012
66           3           36.239 /_  -87.4 =     1.6179 +j   -36.203

ELEMENT = "Line.L60"
60           1         0.001764 /_   91.5 =  -4.7161E-005 +j 0.0017634
60           2         0.001686 /_  -40.1 =  0.0012893 +j -0.0010864
60           3        0.0015152 /_ -149.1 =  -0.0012996 +j -0.00077901
------------
61           1      1.2191E-005 /_   86.9 =  6.5607E-007 +j 1.2174E-005
61           2      1.2515E-005 /_  -32.1 =  1.06E-005 +j -6.6523E-006
61           3       1.242E-005 /_ -152.8 =  -1.1044E-005 +j -5.6812E-006

ELEMENT = "Line.SW6"
61           1      1.2191E-005 /_  -93.1 =  -6.5588E-007 +j -1.2174E-005
61           2      1.2515E-005 /_  147.9 =  -1.0601E-005 +j 6.6523E-006
61           3       1.242E-005 /_   27.2 =  1.1044E-005 +j 5.6811E-006
------------
61S          1       1.313E-005 /_   86.9 =  7.1163E-007 +j 1.3111E-005
61S          2      1.3489E-005 /_  -32.1 =  1.1425E-005 +j -7.1705E-006
61S          3      1.3377E-005 /_ -152.8 =  -1.1893E-005 +j -6.1239E-006

ELEMENT = "Line.L57"
57           2           18.779 /_ -148.3 =    -15.979 +j   -9.8661
------------
58           2            18.78 /_   31.7 =     15.979 +j    9.8658

ELEMENT = "Line.L59"
58           2           9.4628 /_ -148.3 =    -8.0519 +j    -4.971
------------
59           2            9.463 /_   31.7 =     8.0524 +j    4.9707

ELEMENT = "Line.L54"
54           1           8.8761 /_  -29.1 =     7.7574 +j   -4.3138
54           2           9.4256 /_ -148.1 =    -8.0007 +j   -4.9831
54           3        0.0015424 /_ -155.6 =  -0.0014046 +j -0.00063721
------------
55           1           8.8766 /_  150.9 =    -7.7575 +j    4.3146
55           2            9.426 /_   31.9 =     8.0014 +j    4.9826
55           3       0.00077118 /_   24.4 =  0.00070229 +j 0.00031861

ELEMENT = "Line.L56"
55           1       0.00083864 /_   96.1 =  -8.8719E-005 +j 0.00083393
55           2            9.426 /_ -148.1 =    -8.0014 +j   -4.9826
55           3       0.00077118 /_ -155.6 =  -0.00070229 +j -0.00031861
------------
56           1      2.5724E-012 /_ -135.0 =  -1.819E-012 +j -1.819E-012
56           2           9.4263 /_   31.9 =     8.0022 +j    4.9821
56           3       7.276E-012 /_    0.0 =  7.276E-012 +j         0

ELEMENT = "Line.L13"
13           1           228.77 /_  -30.4 =     197.39 +j   -115.65
13           2           154.83 /_ -155.3 =    -140.66 +j   -64.716
13           3           156.38 /_   88.7 =     3.6185 +j    156.34
------------
18           1           228.78 /_  149.6 =    -197.39 +j    115.65
18           2           154.83 /_   24.7 =     140.66 +j    64.714
18           3           156.39 /_  -91.3 =    -3.6205 +j   -156.34

ELEMENT = "Line.SW3"
18           1           135.62 /_  -31.3 =      115.9 +j   -70.435
18           2           136.63 /_ -156.3 =     -125.1 +j   -54.935
18           3           98.573 /_   86.6 =     5.7741 +j    98.404
------------
135          1           135.62 /_  148.7 =     -115.9 +j    70.435
135          2           136.63 /_   23.7 =      125.1 +j    54.935
135          3           98.573 /_  -93.4 =    -5.7741 +j   -98.404

ELEMENT = "Line.L114"
135          1           135.62 /_  -31.3 =      115.9 +j   -70.435
135          2           136.63 /_ -156.3 =     -125.1 +j   -54.935
135          3           98.573 /_   86.6 =     5.7741 +j    98.404
------------
35           1           135.62 /_  148.7 =     -115.9 +j    70.436
35           2           136.63 /_   23.7 =      125.1 +j    54.935
35           3           98.574 /_  -93.4 =    -5.7752 +j   -98.404

ELEMENT = "Line.L36"
35           1           108.82 /_  -34.9 =     89.252 +j   -62.262
35           2           107.67 /_ -155.5 =    -98.009 +j   -44.564
35           3           98.574 /_   86.6 =     5.7752 +j    98.404
------------
40           1           108.82 /_  145.1 =    -89.252 +j    62.263
40           2           107.67 /_   24.5 =      98.01 +j    44.564
40           3           98.574 /_  -93.4 =    -5.7758 +j   -98.405

ELEMENT = "Line.L41"
40           1           108.82 /_  -34.9 =     89.252 +j   -62.263
40           2           107.67 /_ -155.5 =     -98.01 +j   -44.564
40           3           88.976 /_   86.1 =     6.1253 +j    88.765
------------
42           1           108.82 /_  145.1 =    -89.252 +j    62.264
42           2           107.67 /_   24.5 =     98.011 +j    44.563
42           3           88.976 /_  -93.9 =    -6.1259 +j   -88.765

ELEMENT = "Line.L43"
42           1           99.084 /_  -35.5 =     80.688 +j   -57.507
42           2           89.562 /_ -157.1 =    -82.488 +j   -34.887
42           3           88.976 /_   86.1 =     6.1259 +j    88.765
------------
44           1           99.084 /_  144.5 =    -80.688 +j    57.507
44           2           89.563 /_   22.9 =     82.489 +j    34.886
44           3           88.976 /_  -93.9 =    -6.1264 +j   -88.765

ELEMENT = "Line.L45"
44           1           80.167 /_  -37.0 =      64.03 +j   -48.238
44           2           89.563 /_ -157.1 =    -82.489 +j   -34.886
44           3           88.976 /_   86.1 =     6.1264 +j    88.765
------------
47           1           80.168 /_  143.0 =     -64.03 +j    48.239
47           2           89.563 /_   22.9 =      82.49 +j    34.886
47           3           88.977 /_  -93.9 =    -6.1271 +j   -88.765

ELEMENT = "Line.L48"
47           1           28.479 /_  -35.0 =     23.323 +j   -16.343
47           2            36.55 /_ -157.1 =    -33.663 +j   -14.236
47           3           36.776 /_   90.4 =   -0.27333 +j    36.775
------------
49           1           28.479 /_  145.0 =    -23.323 +j    16.343
49           2            36.55 /_   22.9 =     33.664 +j    14.236
49           3           36.776 /_  -89.6 =     0.2726 +j   -36.775

ELEMENT = "Line.L49"
49           1           9.7665 /_  -29.1 =     8.5322 +j   -4.7525
49           2        0.0030434 /_   -9.7 =  0.0030001 +j -0.0005119
49           3           19.352 /_   91.9 =   -0.65176 +j    19.341
------------
50           1           9.7666 /_  150.9 =     -8.532 +j     4.753
50           2        0.0022829 /_  170.3 =  -0.0022503 +j 0.00038408
50           3           19.352 /_  -88.1 =    0.65103 +j   -19.341

ELEMENT = "Line.L50"
50           1           9.7666 /_  -29.1 =      8.532 +j    -4.753
50           2        0.0022829 /_   -9.7 =  0.0022503 +j -0.00038408
50           3        0.0023111 /_ -159.9 =  -0.0021704 +j -0.00079393
------------
51           1           9.7667 /_  150.9 =    -8.5318 +j    4.7536
51           2        0.0015222 /_  170.3 =  -0.0015005 +j 0.00025624
51           3         0.001541 /_   20.1 =  0.0014472 +j 0.00052945

ELEMENT = "Line.L51"
51           1         0.001171 /_   69.6 =  0.00040751 +j 0.0010978
51           2        0.0015222 /_   -9.7 =  0.0015005 +j -0.00025624
51           3         0.001541 /_ -159.9 =  -0.0014472 +j -0.00052945
------------
151          1      9.4261E-007 /_  -92.5 =  -4.1283E-008 +j -9.417E-007
151          2      9.7509E-007 /_  148.5 =  -8.3127E-007 +j 5.0971E-007
151          3      9.5877E-007 /_   28.4 =  8.4323E-007 +j 4.563E-007

ELEMENT = "Line.SW7"
151          1       9.427E-007 /_   87.5 =  4.1211E-008 +j 9.418E-007
151          2      9.7496E-007 /_  -31.5 =  8.3121E-007 +j -5.0955E-007
151          3      9.5877E-007 /_ -151.6 =  -8.432E-007 +j -4.5635E-007
------------
300_OPEN     1      2.3748E-010 /_  109.0 =  -7.717E-011 +j 2.2459E-010
300_OPEN     2       5.245E-010 /_ -167.1 =  -5.1117E-010 +j -1.1751E-010
300_OPEN     3      1.1642E-010 /_  180.0 =  -1.1642E-010 +j         0

ELEMENT = "Line.L47"
47           1           33.882 /_  -38.1 =     26.669 +j   -20.898
47           2           35.105 /_ -157.1 =    -32.333 +j   -13.673
47           3           34.475 /_   83.0 =     4.2143 +j    34.217
------------
48           1           33.882 /_  141.9 =    -26.669 +j    20.898
48           2           35.106 /_   22.9 =     32.333 +j    13.673
48           3           34.476 /_  -97.0 =    -4.2147 +j   -34.217

ELEMENT = "Line.L44"
44           1           19.063 /_  -29.1 =     16.658 +j   -9.2693
------------
45           1           19.063 /_  150.9 =    -16.658 +j    9.2697

ELEMENT = "Line.L46"
45           1           9.7729 /_  -29.1 =     8.5394 +j   -4.7526
------------
46           1           9.7731 /_  150.9 =    -8.5394 +j    4.7531

ELEMENT = "Line.L42"
42           2           18.292 /_ -148.1 =    -15.522 +j   -9.6767
------------
43           2           18.292 /_   31.9 =     15.523 +j    9.6762

ELEMENT = "Line.L40"
40           3           9.6465 /_   92.1 =   -0.34948 +j    9.6402
------------
41           3           9.6468 /_  -87.9 =    0.34891 +j   -9.6405

ELEMENT = "Line.L35"
35           1            17.71 /_  -29.0 =      15.49 +j   -8.5868
35           2           18.788 /_ -148.0 =    -15.933 +j   -9.9574
------------
36           1           17.711 /_  151.0 =     -15.49 +j    8.5884
36           2           18.789 /_   32.0 =     15.934 +j    9.9563

ELEMENT = "Line.L38"
36           2           18.789 /_ -148.0 =    -15.934 +j   -9.9563
------------
38           2           18.789 /_   32.0 =     15.934 +j     9.956

ELEMENT = "Line.L39"
38           2           9.4721 /_ -148.0 =    -8.0332 +j   -5.0188
------------
39           2           9.4724 /_   32.0 =     8.0338 +j    5.0184

ELEMENT = "Line.L37"
36           1           17.711 /_  -29.0 =      15.49 +j   -8.5884
------------
37           1           17.712 /_  151.0 =     -15.49 +j     8.589

ELEMENT = "Line.L19"
18           1           55.023 /_  -29.1 =     48.081 +j   -26.754
18           2            18.38 /_ -147.9 =    -15.562 +j   -9.7795
18           3            57.98 /_   92.1 =    -2.1536 +j     57.94
------------
21           1           55.023 /_  150.9 =     -48.08 +j    26.755
21           2            18.38 /_   32.1 =     15.563 +j     9.779
21           3           57.981 /_  -87.9 =     2.1528 +j   -57.941

ELEMENT = "Line.L22"
21           1           55.023 /_  -29.1 =      48.08 +j   -26.755
21           2        0.0044528 /_  -34.8 =  0.0036544 +j -0.0025442
21           3           57.981 /_   92.1 =    -2.1528 +j    57.941
------------
23           1           55.023 /_  150.9 =     -48.08 +j    26.755
23           2        0.0037462 /_  145.2 =  -0.0030745 +j 0.0021403
23           3           57.981 /_  -87.9 =     2.1522 +j   -57.941

ELEMENT = "Line.L24"
23           1           55.023 /_  -29.1 =      48.08 +j   -26.755
23           2        0.0037462 /_  -34.8 =  0.0030745 +j -0.0021403
23           3           38.663 /_   92.1 =    -1.4364 +j    38.636
------------
25           1           55.024 /_  150.9 =     -48.08 +j    26.756
25           2        0.0029687 /_  145.2 =  -0.0024365 +j 0.0016961
25           3           38.663 /_  -87.9 =     1.4357 +j   -38.637

ELEMENT = "Line.L25"
25R          1           18.633 /_  -29.1 =     16.278 +j   -9.0669
25R          3           19.332 /_   92.1 =   -0.71776 +j    19.319
------------
26           1           18.633 /_  150.9 =    -16.278 +j    9.0678
26           3           19.333 /_  -87.9 =    0.71706 +j    -19.32

ELEMENT = "Line.L28"
26           3           19.333 /_   92.1 =   -0.71651 +j     19.32
------------
31           3           19.334 /_  -87.9 =    0.71612 +j    -19.32

ELEMENT = "Line.L33"
31           3           9.6687 /_   92.1 =   -0.35769 +j    9.6621
------------
32           3           9.6689 /_  -87.9 =    0.35717 +j   -9.6623

ELEMENT = "Line.L27"
26           1           18.633 /_  -29.1 =     16.278 +j   -9.0678
26           3       0.00069687 /_ -142.4 =  -0.00055229 +j -0.00042498
------------
27           1           18.634 /_  150.9 =    -16.278 +j    9.0684
27           3       1.029E-011 /_ -135.0 =  -7.276E-012 +j -7.276E-012

ELEMENT = "Line.L29"
27           1           18.634 /_  -29.1 =     16.278 +j   -9.0684
------------
33           1           18.634 /_  150.9 =    -16.278 +j    9.0694

ELEMENT = "Line.L26"
25           1           36.391 /_  -29.1 =     31.802 +j   -17.689
25           2        0.0029687 /_  -34.8 =  0.0024365 +j -0.0016961
25           3           19.331 /_   92.1 =   -0.71798 +j    19.318
------------
28           1           36.391 /_  150.9 =    -31.802 +j     17.69
28           2        0.0024033 /_  145.2 =  -0.0019725 +j  0.001373
28           3           19.331 /_  -87.9 =    0.71749 +j   -19.318

ELEMENT = "Line.L30"
28           1           17.757 /_  -29.1 =     15.517 +j   -8.6337
28           2        0.0024033 /_  -34.8 =  0.0019725 +j -0.001373
28           3           19.331 /_   92.1 =   -0.71749 +j    19.318
------------
29           1           17.757 /_  150.9 =    -15.516 +j    8.6347
29           2        0.0015551 /_  145.2 =  -0.0012763 +j 0.00088839
29           3           19.332 /_  -87.9 =    0.71674 +j   -19.319

ELEMENT = "Line.L31"
29           1        0.0017967 /_   83.5 =  0.00020417 +j  0.001785
29           2        0.0015551 /_  -34.8 =  0.0012763 +j -0.00088839
29           3           19.332 /_   92.1 =   -0.71674 +j    19.319
------------
30           1       0.00065334 /_  -96.5 =  -7.424E-005 +j -0.00064911
30           2       0.00056548 /_  145.2 =  -0.00046412 +j 0.00032304
30           3           19.333 /_  -87.9 =    0.71587 +j   -19.319

ELEMENT = "Line.L32"
30           1       0.00065334 /_   83.5 =  7.424E-005 +j 0.00064911
30           2       0.00056548 /_  -34.8 =  0.00046412 +j -0.00032304
30           3       0.00061651 /_ -143.7 =  -0.00049702 +j -0.00036478
------------
250          1       5.457E-012 /_  180.0 =  -5.457E-012 +j         0
250          2         1.5E-011 /_   14.0 =  1.4552E-011 +j 3.638E-012
250          3      2.1828E-011 /_  -90.0 =          0 +j -2.1828E-011

ELEMENT = "Line.L23"
23           3           19.318 /_   92.1 =   -0.71579 +j    19.305
------------
24           3           19.319 /_  -87.9 =    0.71484 +j   -19.306

ELEMENT = "Line.L21"
21           2           18.382 /_ -147.9 =    -15.567 +j   -9.7765
------------
22           2           18.383 /_   32.1 =     15.568 +j    9.7759

ELEMENT = "Line.L18"
18           1           38.174 /_  -28.9 =     33.414 +j   -18.459
------------
19           1           38.174 /_  151.1 =    -33.414 +j     18.46

ELEMENT = "Line.L20"
19           1           18.634 /_  -28.9 =     16.309 +j    -9.013
------------
20           1           18.634 /_  151.1 =    -16.309 +j    9.0136

ELEMENT = "Line.L12"
13           3            46.87 /_   92.2 =    -1.8345 +j    46.834
------------
34           3            46.87 /_  -87.8 =     1.8343 +j   -46.834

ELEMENT = "Line.L34"
34           3           28.702 /_   92.2 =     -1.119 +j     28.68
------------
15           3           28.702 /_  -87.8 =     1.1188 +j    -28.68

ELEMENT = "Line.L17"
15           3           9.5636 /_   92.2 =    -0.3742 +j    9.5563
------------
17           3            9.564 /_  -87.8 =    0.37359 +j   -9.5567

ELEMENT = "Line.L16"
15           3           19.138 /_   92.2 =   -0.74462 +j    19.124
------------
16           3           19.139 /_  -87.8 =    0.74397 +j   -19.124

ELEMENT = "Line.L9"
8            1           46.558 /_  -28.1 =     41.086 +j   -21.899
------------
9            1           46.558 /_  151.9 =    -41.086 +j      21.9

ELEMENT = "Line.L11"
9R           1           27.359 /_  -28.1 =     24.139 +j   -12.876
------------
14           1           27.359 /_  151.9 =    -24.139 +j    12.877

ELEMENT = "Line.L15"
14           1           9.3168 /_  -28.1 =     8.2207 +j   -4.3842
------------
10           1            9.317 /_  151.9 =    -8.2207 +j    4.3847

ELEMENT = "Line.L14"
14           1           18.042 /_  -28.1 =     15.919 +j   -8.4924
------------
11           1           18.043 /_  151.9 =    -15.919 +j    8.4929

ELEMENT = "Line.L8"
8            2           9.3722 /_ -147.4 =    -7.8913 +j   -5.0563
------------
12           2           9.3724 /_   32.6 =     7.8917 +j     5.056

ELEMENT = "Line.L2"
1            3            46.56 /_   93.0 =    -2.4134 +j    46.497
------------
3            3            46.56 /_  -87.0 =     2.4129 +j   -46.497

ELEMENT = "Line.L5"
3            3           27.724 /_   93.0 =    -1.4325 +j    27.687
------------
5            3           27.725 /_  -87.0 =     1.4319 +j   -27.688

ELEMENT = "Line.L6"
5            3           18.408 /_   93.0 =   -0.94947 +j    18.383
------------
6            3           18.408 /_  -87.0 =    0.94903 +j   -18.383

ELEMENT = "Line.L4"
3            3           18.836 /_   93.0 =   -0.98047 +j     18.81
------------
4            3           18.836 /_  -87.0 =    0.98012 +j    -18.81

ELEMENT = "Line.L1"
1            2           9.3401 /_ -146.9 =     -7.825 +j   -5.0997
------------
2            2           9.3402 /_   33.1 =     7.8253 +j    5.0995

ELEMENT = "Transformer.REG4C"
160          3           194.97 /_  117.9 =    -91.355 +j    172.24
160          0           194.97 /_  -62.1 =     91.355 +j   -172.24
------------
160R         3           189.06 /_  -62.1 =     88.587 +j   -167.02
160R         0           189.06 /_  117.9 =    -88.587 +j    167.02

ELEMENT = "Transformer.REG4B"
160          2           178.55 /_ -122.5 =    -95.845 +j   -150.64
160          0           178.55 /_   57.5 =     95.845 +j    150.64
------------
160R         2           176.35 /_   57.5 =     94.662 +j    148.79
160R         0           176.35 /_ -122.5 =    -94.662 +j   -148.79

ELEMENT = "Transformer.REG4A"
160          1           235.92 /_   -9.1 =     232.94 +j   -37.384
160          0           235.92 /_  170.9 =    -232.94 +j    37.384
------------
160R         1           235.92 /_  170.9 =    -232.94 +j    37.384
160R         0           235.92 /_   -9.1 =     232.94 +j   -37.384

ELEMENT = "Transformer.XFM1"
61S          1       1.313E-005 /_  -93.1 =  -7.1186E-007 +j -1.3111E-005
61S          2      1.3489E-005 /_  147.9 =  -1.1425E-005 +j 7.1707E-006
61S          3      1.3377E-005 /_   27.2 =  1.1893E-005 +j 6.1241E-006
61S          0                0 /_    0.0 =          0 +j         0
------------
610          1      1.0168E-012 /_   63.4 =  4.5475E-013 +j 9.0949E-013
610          2      8.1981E-013 /_ -123.7 =  -4.5475E-013 +j -6.8212E-013
610          3      4.5475E-013 /_   90.0 =          0 +j 4.5475E-013
610          0                0 /_    0.0 =          0 +j         0

ELEMENT = "Transformer.REG3C"
25           3           19.332 /_   92.1 =   -0.71776 +j    19.319
25           0           19.332 /_  -87.9 =    0.71776 +j   -19.319
------------
25R          3           19.332 /_  -87.9 =    0.71776 +j   -19.319
25R          0           19.332 /_   92.1 =   -0.71776 +j    19.319

ELEMENT = "Transformer.REG3A"
25           1           18.633 /_  -29.1 =     16.278 +j   -9.0669
25           0           18.633 /_  150.9 =    -16.278 +j    9.0669
------------
25R          1           18.633 /_  150.9 =    -16.278 +j    9.0669
25R          0           18.633 /_  -29.1 =     16.278 +j   -9.0669

ELEMENT = "Transformer.REG2A"
9            1           27.359 /_  -28.1 =     24.139 +j   -12.876
9            0           27.359 /_  151.9 =    -24.139 +j    12.876
------------
9R           1           27.359 /_  151.9 =    -24.139 +j    12.876
9R           0           27.359 /_  -28.1 =     24.139 +j   -12.876

ELEMENT = "Capacitor.C92C"
92           3           20.629 /_ -152.8 =    -18.349 +j   -9.4275
------------
92           0           20.629 /_   27.2 =     18.349 +j    9.4275

ELEMENT = "Capacitor.C90B"
90           2           20.515 /_  -32.9 =     17.221 +j   -11.149
------------
90           0           20.515 /_  147.1 =    -17.221 +j    11.149

ELEMENT = "Capacitor.C88A"
88           1           19.518 /_   86.0 =     1.3671 +j     19.47
------------
88           0           19.518 /_  -94.0 =    -1.3671 +j    -19.47

ELEMENT = "Capacitor.C83"
83           1           78.694 /_   85.8 =     5.7057 +j    78.487
83           2           82.841 /_  -32.8 =     69.637 +j   -44.869
83           3            82.63 /_ -153.0 =    -73.615 +j    -37.53
------------
83           0           78.694 /_  -94.2 =    -5.7057 +j   -78.487
83           0           82.841 /_  147.2 =    -69.637 +j    44.869
83           0            82.63 /_   27.0 =     73.615 +j     37.53

ELEMENT = "Line.SW1"
150R         1           630.32 /_  -22.9 =     580.63 +j    -245.3
150R         2           416.69 /_ -140.4 =    -321.01 +j   -265.67
150R         3           511.04 /_  100.7 =    -94.962 +j    502.14
------------
149          1           630.32 /_  157.1 =    -580.63 +j     245.3
149          2           416.69 /_   39.6 =     321.01 +j    265.67
149          3           511.04 /_  -79.3 =     94.962 +j   -502.14

ELEMENT = "Transformer.REG1A"
150          1           630.32 /_  -22.9 =     580.63 +j    -245.3
150          2           416.69 /_ -140.4 =    -321.01 +j   -265.67
150          3           511.04 /_  100.7 =    -94.962 +j    502.14
150          0            164.9 /_  176.9 =    -164.66 +j    8.8298
------------
150R         1           630.32 /_  157.1 =    -580.63 +j     245.3
150R         2           416.69 /_   39.6 =     321.01 +j    265.67
150R         3           511.04 /_  -79.3 =     94.962 +j   -502.14
150R         0            164.9 /_   -3.1 =     164.66 +j   -8.8298

= = = = = = = = = = = = = = = = = = =  = = = = = = = = = = =  = =

Power Conversion Elements

  Bus    Phase    Magnitude, A     Angle      (Real)   +j  (Imag)

ELEMENT = "Load.S1A"
1            1           18.867 /_  -27.2 =     16.778 +j   -8.6296
1            0           18.867 /_  152.8 =    -16.778 +j    8.6296

ELEMENT = "Load.S7A"
7            1           9.5249 /_  -27.7 =     8.4339 +j   -4.4263
7            0           9.5249 /_  152.3 =    -8.4339 +j    4.4263

ELEMENT = "Load.S52A"
52           1           19.462 /_  -28.8 =     17.053 +j   -9.3798
52           0           19.462 /_  151.2 =    -17.053 +j    9.3798

ELEMENT = "Load.S53A"
53           1            19.52 /_  -29.0 =     17.075 +j   -9.4591
53           0            19.52 /_  151.0 =    -17.075 +j    9.4591

ELEMENT = "Load.S60A"
60           1           9.7237 /_  -30.0 =     8.4174 +j   -4.8681
60           0           9.7237 /_  150.0 =    -8.4174 +j    4.8681

ELEMENT = "Load.S109A"
109          1           19.192 /_  -30.6 =     16.514 +j   -9.7785
109          0           19.192 /_  149.4 =    -16.514 +j    9.7785

ELEMENT = "Load.S112A"
112          1           9.0993 /_  -30.7 =     7.8253 +j   -4.6434
112          0           9.0993 /_  149.3 =    -7.8253 +j    4.6434

ELEMENT = "Load.S113A"
113          1           17.273 /_  -30.7 =     14.848 +j   -8.8256
113          0           17.273 /_  149.3 =    -14.848 +j    8.8256

ELEMENT = "Load.S114A"
114          1           9.5389 /_  -30.7 =     8.1991 +j   -4.8751
114          0           9.5389 /_  149.3 =    -8.1991 +j    4.8751

ELEMENT = "Load.S111A"
111          1           9.5651 /_  -30.7 =     8.2256 +j   -4.8816
111          0           9.5651 /_  149.3 =    -8.2256 +j    4.8816

ELEMENT = "Load.S106B"
106          2           18.845 /_ -149.0 =    -16.157 +j   -9.6989
106          0           18.845 /_   31.0 =     16.157 +j    9.6989

ELEMENT = "Load.S107B"
107          2           18.874 /_ -149.1 =    -16.188 +j   -9.7054
107          0           18.874 /_   30.9 =     16.188 +j    9.7054

ELEMENT = "Load.S102C"
102          3           9.4458 /_   90.9 =   -0.14364 +j    9.4447
102          0           9.4458 /_  -89.1 =    0.14364 +j   -9.4447

ELEMENT = "Load.S103C"
103          3           18.925 /_   90.8 =   -0.27643 +j    18.923
103          0           18.925 /_  -89.2 =    0.27643 +j   -18.923

ELEMENT = "Load.S104C"
104          3           18.961 /_   90.8 =   -0.26465 +j    18.959
104          0           18.961 /_  -89.2 =    0.26465 +j   -18.959

ELEMENT = "Load.S98A"
98           1           19.364 /_  -30.4 =     16.704 +j   -9.7964
98           0           19.364 /_  149.6 =    -16.704 +j    9.7964

ELEMENT = "Load.S99B"
99           2           18.833 /_ -149.0 =    -16.137 +j   -9.7113
99           0           18.833 /_   31.0 =     16.137 +j    9.7113

ELEMENT = "Load.S100C"
100          3           18.403 /_   90.8 =   -0.27186 +j    18.401
100          0           18.403 /_  -89.2 =    0.27186 +j   -18.401

ELEMENT = "Load.S76A"
76           1           31.732 /_   -9.7 =      31.28 +j   -5.3349
76           2           31.732 /_  170.3 =     -31.28 +j    5.3349

ELEMENT = "Load.S76B"
76           2           20.679 /_ -128.2 =    -12.774 +j   -16.261
76           3           20.679 /_   51.8 =     12.774 +j    16.261

ELEMENT = "Load.S76C"
76           3           20.679 /_  110.3 =    -7.1877 +j    19.389
76           1           20.679 /_  -69.7 =     7.1877 +j   -19.389

ELEMENT = "Load.S86B"
86           2            9.434 /_ -149.3 =    -8.1117 +j   -4.8168
86           0            9.434 /_   30.7 =     8.1117 +j    4.8168

ELEMENT = "Load.S87B"
87           2           18.884 /_ -149.4 =    -16.253 +j   -9.6144
87           0           18.884 /_   30.6 =     16.253 +j    9.6144

ELEMENT = "Load.S95B"
95           2           9.4532 /_ -149.5 =    -8.1446 +j   -4.7988
95           0           9.4532 /_   30.5 =     8.1446 +j    4.7988

ELEMENT = "Load.S96B"
96           2           9.4557 /_ -149.5 =    -8.1472 +j   -4.7994
96           0           9.4557 /_   30.5 =     8.1472 +j    4.7994

ELEMENT = "Load.S94A"
94           1           19.312 /_  -30.6 =     16.629 +j    -9.821
94           0           19.312 /_  149.4 =    -16.629 +j     9.821

ELEMENT = "Load.S92C"
92           3           18.786 /_   90.6 =   -0.20684 +j    18.785
92           0           18.786 /_  -89.4 =    0.20684 +j   -18.785

ELEMENT = "Load.S90B"
90           2           18.634 /_ -149.5 =    -16.053 +j   -9.4614
90           0           18.634 /_   30.5 =     16.053 +j    9.4614

ELEMENT = "Load.S88A"
88           1           19.349 /_  -30.6 =     16.658 +j   -9.8441
88           0           19.349 /_  149.4 =    -16.658 +j    9.8441

ELEMENT = "Load.S77B"
77           2           18.813 /_ -149.2 =    -16.161 +j   -9.6309
77           0           18.813 /_   30.8 =     16.161 +j    9.6309

ELEMENT = "Load.S80B"
80           2           18.776 /_ -149.3 =    -16.142 +j   -9.5893
80           0           18.776 /_   30.7 =     16.142 +j    9.5893

ELEMENT = "Load.S84C"
84           3           9.4224 /_   90.5 =  -0.076901 +j    9.4221
84           0           9.4224 /_  -89.5 =   0.076901 +j   -9.4221

ELEMENT = "Load.S85C"
85           3           18.869 /_   90.4 =   -0.14576 +j    18.868
85           0           18.869 /_  -89.6 =    0.14576 +j   -18.868

ELEMENT = "Load.S82A"
82           1           19.493 /_  -30.7 =      16.76 +j   -9.9525
82           0           19.493 /_  149.3 =     -16.76 +j    9.9525

ELEMENT = "Load.S83C"
83           3           9.3819 /_   90.5 =   -0.07371 +j    9.3816
83           0           9.3819 /_  -89.5 =    0.07371 +j   -9.3816

ELEMENT = "Load.S79A"
79           1           17.538 /_  -30.6 =     15.098 +j   -8.9243
79           0           17.538 /_  149.4 =    -15.098 +j    8.9243

ELEMENT = "Load.S73C"
73           3           18.884 /_   90.8 =   -0.25343 +j    18.883
73           0           18.884 /_  -89.2 =    0.25343 +j   -18.883

ELEMENT = "Load.S74C"
74           3           18.352 /_   90.7 =    -0.2346 +j    18.351
74           0           18.352 /_  -89.3 =     0.2346 +j   -18.351

ELEMENT = "Load.S75C"
75           3            18.94 /_   90.7 =    -0.2351 +j    18.939
75           0            18.94 /_  -89.3 =     0.2351 +j   -18.939

ELEMENT = "Load.S68A"
68           1           9.6778 /_  -30.4 =      8.351 +j   -4.8908
68           0           9.6778 /_  149.6 =     -8.351 +j    4.8908

ELEMENT = "Load.S69A"
69           1           19.313 /_  -30.4 =     16.658 +j   -9.7713
69           0           19.313 /_  149.6 =    -16.658 +j    9.7713

ELEMENT = "Load.S70A"
70           1           9.6412 /_  -30.4 =     8.3137 +j    -4.882
70           0           9.6412 /_  149.6 =    -8.3137 +j     4.882

ELEMENT = "Load.S71A"
71           1           19.265 /_  -30.4 =      16.61 +j   -9.7598
71           0           19.265 /_  149.6 =     -16.61 +j    9.7598

ELEMENT = "Load.S62C"
62           3           17.877 /_   91.1 =   -0.33166 +j    17.874
62           0           17.877 /_  -88.9 =    0.33166 +j   -17.874

ELEMENT = "Load.S63A"
63           1           19.416 /_  -30.0 =      16.81 +j   -9.7165
63           0           19.416 /_  150.0 =     -16.81 +j    9.7165

ELEMENT = "Load.S64B"
64           2           34.485 /_ -147.1 =    -28.953 +j   -18.734
64           0           34.485 /_   32.9 =     28.953 +j    18.734

ELEMENT = "Load.S65A"
65           1            9.828 /_   -7.7 =     9.7405 +j   -1.3089
65           2            9.828 /_  172.3 =    -9.7405 +j    1.3089

ELEMENT = "Load.S65B"
65           2           9.9845 /_ -128.2 =    -6.1677 +j   -7.8517
65           3           9.9845 /_   51.8 =     6.1677 +j    7.8517

ELEMENT = "Load.S65C"
65           3           19.665 /_  111.3 =    -7.1455 +j    18.321
65           1           19.665 /_  -68.7 =     7.1455 +j   -18.321

ELEMENT = "Load.S66C"
66           3            36.24 /_   92.6 =    -1.6189 +j    36.204
66           0            36.24 /_  -87.4 =     1.6189 +j   -36.204

ELEMENT = "Load.S58B"
58           2           9.3169 /_ -148.3 =    -7.9276 +j   -4.8948
58           0           9.3169 /_   31.7 =     7.9276 +j    4.8948

ELEMENT = "Load.S59B"
59           2            9.463 /_ -148.3 =    -8.0525 +j   -4.9706
59           0            9.463 /_   31.7 =     8.0525 +j    4.9706

ELEMENT = "Load.S55A"
55           1            8.877 /_  -29.1 =     7.7575 +j   -4.3154
55           0            8.877 /_  150.9 =    -7.7575 +j    4.3154

ELEMENT = "Load.S56B"
56           2           9.4263 /_ -148.1 =    -8.0022 +j    -4.982
56           0           9.4263 /_   31.9 =     8.0022 +j     4.982

ELEMENT = "Load.S35A"
35           1           11.164 /_    2.1 =     11.157 +j   0.41295
35           2           11.164 /_ -177.9 =    -11.157 +j  -0.41295

ELEMENT = "Load.S42A"
42           1           9.7964 /_  -29.0 =      8.564 +j   -4.7568
42           0           9.7964 /_  151.0 =     -8.564 +j    4.7568

ELEMENT = "Load.S47"
47           1           17.833 /_  -38.1 =     14.038 +j   -10.998
47           2           17.908 /_ -157.1 =    -16.493 +j   -6.9767
47           3           17.908 /_   83.0 =     2.1859 +j    17.774
47           0          0.33538 /_   36.6 =    0.26913 +j   0.20011

ELEMENT = "Load.S49A"
49           1           18.791 /_  -38.1 =     14.791 +j   -11.591
49           0           18.791 /_  141.9 =    -14.791 +j    11.591

ELEMENT = "Load.S49B"
49           2           36.553 /_ -157.1 =    -33.667 +j   -14.235
49           0           36.553 /_   22.9 =     33.667 +j    14.235

ELEMENT = "Load.S49C"
49           3           17.438 /_   88.8 =    0.37887 +j    17.434
49           0           17.438 /_  -91.2 =   -0.37887 +j   -17.434

ELEMENT = "Load.S50C"
50           3           19.353 /_   91.9 =    -0.6492 +j    19.342
50           0           19.353 /_  -88.1 =     0.6492 +j   -19.342

ELEMENT = "Load.S51A"
51           1           9.7668 /_  -29.1 =     8.5313 +j   -4.7546
51           0           9.7668 /_  150.9 =    -8.5313 +j    4.7546

ELEMENT = "Load.S48"
48           1           33.881 /_  -38.1 =     26.669 +j   -20.898
48           2           35.106 /_ -157.1 =    -32.334 +j   -13.673
48           3           34.477 /_   83.0 =     4.2142 +j    34.218
48           0           1.4932 /_   13.7 =     1.4509 +j   0.35291

ELEMENT = "Load.S45A"
45           1           9.2902 /_  -29.1 =     8.1182 +j    -4.517
45           0           9.2902 /_  150.9 =    -8.1182 +j     4.517

ELEMENT = "Load.S46A"
46           1           9.7731 /_  -29.1 =     8.5394 +j   -4.7531
46           0           9.7731 /_  150.9 =    -8.5394 +j    4.7531

ELEMENT = "Load.S43B"
43           2           18.292 /_ -148.1 =    -15.523 +j   -9.6761
43           0           18.292 /_   31.9 =     15.523 +j    9.6761

ELEMENT = "Load.S41C"
41           3            9.647 /_   92.1 =   -0.34907 +j    9.6407
41           0            9.647 /_  -87.9 =    0.34907 +j   -9.6407

ELEMENT = "Load.S38B"
38           2           9.3169 /_ -148.0 =    -7.9012 +j   -4.9372
38           0           9.3169 /_   32.0 =     7.9012 +j    4.9372

ELEMENT = "Load.S39B"
39           2           9.4724 /_ -148.0 =    -8.0338 +j   -5.0184
39           0           9.4724 /_   32.0 =     8.0338 +j    5.0184

ELEMENT = "Load.S37A"
37           1           17.712 /_  -29.0 =      15.49 +j   -8.5889
37           0           17.712 /_  151.0 =     -15.49 +j    8.5889

ELEMENT = "Load.S31C"
31           3           9.6651 /_   92.1 =   -0.35859 +j    9.6584
31           0           9.6651 /_  -87.9 =    0.35859 +j   -9.6584

ELEMENT = "Load.S32C"
32           3           9.6692 /_   92.1 =   -0.35734 +j    9.6626
32           0           9.6692 /_  -87.9 =    0.35734 +j   -9.6626

ELEMENT = "Load.S33A"
33           1           18.634 /_  -29.1 =     16.278 +j   -9.0693
33           0           18.634 /_  150.9 =    -16.278 +j    9.0693

ELEMENT = "Load.S28A"
28           1           18.634 /_  -29.1 =     16.285 +j   -9.0563
28           0           18.634 /_  150.9 =    -16.285 +j    9.0563

ELEMENT = "Load.S29A"
29           1           17.758 /_  -29.1 =     15.516 +j   -8.6363
29           0           17.758 /_  150.9 =    -15.516 +j    8.6363

ELEMENT = "Load.S30C"
30           3           19.333 /_   92.1 =   -0.71571 +j     19.32
30           0           19.333 /_  -87.9 =    0.71571 +j    -19.32

ELEMENT = "Load.S24C"
24           3           19.319 /_   92.1 =   -0.71516 +j    19.306
24           0           19.319 /_  -87.9 =    0.71516 +j   -19.306

ELEMENT = "Load.S22B"
22           2           18.383 /_ -147.9 =    -15.568 +j   -9.7758
22           0           18.383 /_   32.1 =     15.568 +j    9.7758

ELEMENT = "Load.S19A"
19           1            19.54 /_  -28.9 =     17.105 +j   -9.4466
19           0            19.54 /_  151.1 =    -17.105 +j    9.4466

ELEMENT = "Load.S20A"
20           1           18.634 /_  -28.9 =     16.309 +j   -9.0135
20           0           18.634 /_  151.1 =    -16.309 +j    9.0135

ELEMENT = "Load.S34C"
34           3           18.169 /_   92.3 =   -0.71552 +j    18.155
34           0           18.169 /_  -87.7 =    0.71552 +j   -18.155

ELEMENT = "Load.S17C"
17           3           9.5641 /_   92.2 =   -0.37372 +j    9.5568
17           0           9.5641 /_  -87.8 =    0.37372 +j   -9.5568

ELEMENT = "Load.S16C"
16           3           19.139 /_   92.2 =   -0.74424 +j    19.124
16           0           19.139 /_  -87.8 =    0.74424 +j   -19.124

ELEMENT = "Load.S9A"
9            1           19.199 /_  -28.0 =     16.947 +j   -9.0238
9            0           19.199 /_  152.0 =    -16.947 +j    9.0238

ELEMENT = "Load.S10A"
10           1           9.3169 /_  -28.1 =     8.2207 +j   -4.3847
10           0           9.3169 /_  151.9 =    -8.2207 +j    4.3847

ELEMENT = "Load.S11A"
11           1           18.042 /_  -28.1 =     15.919 +j   -8.4928
11           0           18.042 /_  151.9 =    -15.919 +j    8.4928

ELEMENT = "Load.S12B"
12           2           9.3725 /_ -147.4 =    -7.8918 +j    -5.056
12           0           9.3725 /_   32.6 =     7.8918 +j     5.056

ELEMENT = "Load.S5C"
5            3           9.3169 /_   93.0 =   -0.48247 +j    9.3044
5            0           9.3169 /_  -87.0 =    0.48247 +j   -9.3044

ELEMENT = "Load.S6C"
6            3           18.408 /_   93.0 =   -0.94912 +j    18.383
6            0           18.408 /_  -87.0 =    0.94912 +j   -18.383

ELEMENT = "Load.S4C"
4            3           18.836 /_   93.0 =   -0.98021 +j    18.811
4            0           18.836 /_  -87.0 =    0.98021 +j   -18.811

ELEMENT = "Load.S2B"
2            2           9.3403 /_ -146.9 =    -7.8253 +j   -5.0995
...